Circuit: * D:\GitHub\physics_laboratory_2020_2021\AMPLIFICATORI OPERAZIONALI\Simulations\Differentiator\Differentiator_simulation.asc

Direct Newton iteration for .op point succeeded.

Date: Thu Nov 12 08:56:58 2020
Total elapsed time: 0.044 seconds.

tnom = 27
temp = 27
method = trap
totiter = 4
traniter = 0
tranpoints = 0
accept = 0
rejected = 0
matrix size = 11
fillins = 1
solver = Normal
Matrix Compiler1:      27 opcodes
Matrix Compiler2: 881 bytes object code size
