Circuit: * D:\GitHub\physics_laboratory_2020_2021\CATENA ELETTRONICA\Simulations\PreAmp\PreAmp.asc

Limiting rise time of source vg to 5e-007
Limiting fall time of source vg to 5e-007
Direct Newton iteration for .op point succeeded.

Date: Mon Nov 23 22:02:58 2020
Total elapsed time: 1.737 seconds.

tnom = 27
temp = 27
method = modified trap
totiter = 100330
traniter = 100326
tranpoints = 50164
accept = 50139
rejected = 25
matrix size = 10
fillins = 1
solver = Normal
Matrix Compiler1: 400 bytes object code size  0.1/0.1/[0.1]
Matrix Compiler2: 808 bytes object code size  0.1/0.3/[0.0]

