Circuit: * D:\GitHub\physics_laboratory_2020_2021\CATENA ELETTRONICA\Simulations\PreAmp\PreAmp.asc

WARNING: Specified period is not longer than the sum of Trise, Tfall, and Ton for vg2.  Increasing period to 2e-006
Limiting rise time of source vg2 to 3.81165e-022
Limiting fall time of source vg2 to 3.81165e-022
Limiting rise time of source vg1 to 5e-007
Limiting fall time of source vg1 to 5e-007
Limiting rise time of source vg to 3e-007
Limiting fall time of source vg to 3e-007
Direct Newton iteration for .op point succeeded.

Date: Tue Dec 22 15:18:09 2020
Total elapsed time: 0.432 seconds.

tnom = 27
temp = 27
method = modified trap
totiter = 49844
traniter = 49840
tranpoints = 24921
accept = 24082
rejected = 839
matrix size = 14
fillins = 1
solver = Normal
Matrix Compiler1: 528 bytes object code size  0.1/0.1/[0.1]
Matrix Compiler2: 1.04 KB object code size  0.1/0.1/[0.1]

