Circuit: * D:\GitHub\physics_laboratory_2020_2021\CATENA ELETTRONICA\Simulations\PreAmp\PreAmp.asc

Limiting rise time of source vg to 5e-007
Limiting fall time of source vg to 5e-007
Direct Newton iteration for .op point succeeded.

Date: Sun Nov 22 22:08:14 2020
Total elapsed time: 1.656 seconds.

tnom = 27
temp = 27
method = modified trap
totiter = 100366
traniter = 100362
tranpoints = 50182
accept = 50147
rejected = 35
matrix size = 10
fillins = 1
solver = Normal
Matrix Compiler1: 400 bytes object code size  0.1/0.1/[0.1]
Matrix Compiler2: 808 bytes object code size  0.1/0.1/[0.1]

