Circuit: * D:\GitHub\physics_laboratory_2020_2021\CATENA ELETTRONICA\Simulations\PreAmp\PreAmp.asc

Limiting rise time of source vg to 5e-007
Limiting fall time of source vg to 5e-007
Direct Newton iteration for .op point succeeded.

Date: Mon Dec 14 14:35:03 2020
Total elapsed time: 0.185 seconds.

tnom = 27
temp = 27
method = modified trap
totiter = 10498
traniter = 10494
tranpoints = 5248
accept = 5223
rejected = 25
matrix size = 10
fillins = 1
solver = Normal
Matrix Compiler1: 400 bytes object code size  0.1/0.1/[0.1]
Matrix Compiler2: 808 bytes object code size  0.1/0.1/[0.1]

