Circuit: * D:\GitHub\physics_laboratory_2020_2021\CATENA ELETTRONICA\Simulations\PreAmp\PreAmp_frequency.asc

Direct Newton iteration for .op point succeeded.

Date: Mon Nov 23 22:06:27 2020
Total elapsed time: 0.047 seconds.

tnom = 27
temp = 27
method = trap
totiter = 4
traniter = 0
tranpoints = 0
accept = 0
rejected = 0
matrix size = 10
fillins = 1
solver = Normal
Matrix Compiler1:      24 opcodes
Matrix Compiler2: 808 bytes object code size
