Circuit: * D:\GitHub\physics_laboratory_2020_2021\CATENA ELETTRONICA\Simulations\Shaper\Shaper_PreAmp_Rpz.asc

WARNING: Specified period is not longer than the sum of Trise, Tfall, and Ton for vg3.  Increasing period to 2e-006
Limiting rise time of source vg3 to 3.81165e-022
Limiting fall time of source vg3 to 3.81165e-022
Limiting rise time of source vg2 to 5e-007
Limiting fall time of source vg2 to 5e-007
Limiting rise time of source vg1 to 3e-007
Limiting fall time of source vg1 to 3e-007
Direct Newton iteration for .op point succeeded.

Date: Tue Dec 22 15:21:29 2020
Total elapsed time: 0.742 seconds.

tnom = 27
temp = 27
method = modified trap
totiter = 119550
traniter = 119546
tranpoints = 59774
accept = 57720
rejected = 2054
matrix size = 18
fillins = 1
solver = Normal
Matrix Compiler1: 782 bytes object code size  0.2/0.1/[0.1]
Matrix Compiler2: 1.52 KB object code size  0.2/0.2/[0.1]

