Circuit: * D:\GitHub\physics_laboratory_2020_2021\CATENA ELETTRONICA\Simulations\Shaper\Shaper.asc

Direct Newton iteration for .op point succeeded.

Date: Mon Nov 30 17:05:52 2020
Total elapsed time: 0.110 seconds.

tnom = 27
temp = 27
method = modified trap
totiter = 6050
traniter = 6046
tranpoints = 3024
accept = 3023
rejected = 1
matrix size = 11
fillins = 0
solver = Normal
Matrix Compiler1: 396 bytes object code size  0.2/0.1/[0.1]
Matrix Compiler2: 847 bytes object code size  0.1/0.2/[0.1]

