Circuit: * D:\GitHub\physics_laboratory_2020_2021\CATENA ELETTRONICA\Simulations\Shaper\Shaper_PreAmp_Rpz.asc

Limiting rise time of source vg to 5e-007
Limiting fall time of source vg to 5e-007
Direct Newton iteration for .op point succeeded.

Date: Tue Dec 01 14:56:57 2020
Total elapsed time: 2.623 seconds.

tnom = 27
temp = 27
method = modified trap
totiter = 100324
traniter = 100320
tranpoints = 50161
accept = 50133
rejected = 28
matrix size = 14
fillins = 1
solver = Normal
Matrix Compiler1: 690 bytes object code size  0.2/0.1/[0.1]
Matrix Compiler2: 1.26 KB object code size  0.2/0.2/[0.1]

