Circuit: * D:\GitHub\physics_laboratory_2020_2021\CATENA ELETTRONICA\Simulations\Shaper\Shaper_frequency.asc

Direct Newton iteration for .op point succeeded.

Date: Tue Nov 24 21:00:35 2020
Total elapsed time: 0.056 seconds.

tnom = 27
temp = 27
method = trap
totiter = 4
traniter = 0
tranpoints = 0
accept = 0
rejected = 0
matrix size = 11
fillins = 0
solver = Normal
Matrix Compiler1:      24 opcodes
Matrix Compiler2: 847 bytes object code size
