Circuit: * D:\GitHub\physics_laboratory_2020_2021\CATENA ELETTRONICA\Simulations\Shaper\Shaper_PreAmp_base.asc

Limiting rise time of source vg to 5e-007
Limiting fall time of source vg to 5e-007
Direct Newton iteration for .op point succeeded.

Date: Tue Dec 01 14:06:57 2020
Total elapsed time: 2.492 seconds.

tnom = 27
temp = 27
method = modified trap
totiter = 100312
traniter = 100308
tranpoints = 50155
accept = 50116
rejected = 39
matrix size = 14
fillins = 1
solver = Normal
Matrix Compiler1: 690 bytes object code size  0.1/0.1/[0.1]
Matrix Compiler2: 1.26 KB object code size  0.2/0.7/[0.1]

