Circuit: * D:\GitHub\physics_laboratory_2020_2021\CATENA ELETTRONICA\Simulations\Shaper\Shaper_PreAmp_Rpz.asc

Limiting rise time of source vg to 5e-007
Limiting fall time of source vg to 5e-007
Direct Newton iteration for .op point succeeded.

Date: Tue Dec 15 07:57:21 2020
Total elapsed time: 0.525 seconds.

tnom = 27
temp = 27
method = modified trap
totiter = 20108
traniter = 20104
tranpoints = 10053
accept = 10044
rejected = 9
matrix size = 14
fillins = 1
solver = Normal
Matrix Compiler1: 690 bytes object code size  0.2/0.1/[0.0]
Matrix Compiler2: 1.26 KB object code size  0.1/0.1/[0.1]

