Circuit: * D:\GitHub\physics_laboratory_2020_2021\AMPLIFICATORI OPERAZIONALI\Simulations\OpAmp\OpAmp_simulation.asc

Direct Newton iteration for .op point succeeded.

Date: Wed Oct 28 20:26:41 2020
Total elapsed time: 0.059 seconds.

tnom = 27
temp = 27
method = modified trap
totiter = 1634
traniter = 1630
tranpoints = 816
accept = 498
rejected = 318
matrix size = 10
fillins = 1
solver = Normal
Matrix Compiler1: 454 bytes object code size  0.1/0.1/[0.1]
Matrix Compiler2: 790 bytes object code size  0.1/0.1/[0.1]

