Circuit: * D:\GitHub\physics_laboratory_2020_2021\CATENA ELETTRONICA\Simulations\Catena\Catena_frequency.asc

Limiting rise time of source vg1 to 0.0001
Limiting fall time of source vg1 to 0.0001
Direct Newton iteration for .op point succeeded.

Date: Wed Dec 02 13:12:28 2020
Total elapsed time: 0.042 seconds.

tnom = 27
temp = 27
method = trap
totiter = 4
traniter = 0
tranpoints = 0
accept = 0
rejected = 0
matrix size = 17
fillins = 3
solver = Normal
Matrix Compiler1:      62 opcodes
Matrix Compiler2: 1.74 KB object code size
