Circuit: * D:\GitHub\physics_laboratory_2020_2021\CATENA ELETTRONICA\Simulations\Catena\Catena_frequency.asc

Limiting rise time of source vg1 to 5e-007
Limiting fall time of source vg1 to 5e-007
Direct Newton iteration for .op point succeeded.

Date: Sun Dec 20 16:29:21 2020
Total elapsed time: 0.080 seconds.

tnom = 27
temp = 27
method = modified trap
totiter = 4108
traniter = 4104
tranpoints = 2053
accept = 2044
rejected = 9
matrix size = 17
fillins = 3
solver = Normal
Matrix Compiler1: 1.04 KB object code size  0.3/0.1/[0.1]
Matrix Compiler2: 1.74 KB object code size  0.2/0.2/[0.1]

