Circuit: * D:\GitHub\physics_laboratory_2020_2021\AMPLIFICATORI OPERAZIONALI\Simulations\OpAmp\SIM\OPAMP.asc

Direct Newton iteration for .op point succeeded.

Date: Fri Nov 06 16:30:07 2020
Total elapsed time: 0.052 seconds.

tnom = 27
temp = 27
method = modified trap
totiter = 1962
traniter = 1958
tranpoints = 806
accept = 498
rejected = 308
matrix size = 10
fillins = 1
solver = Normal
Matrix Compiler1:      27 opcodes  0.1/[0.1]/0.1
Matrix Compiler2: 790 bytes object code size  0.1/0.1/[0.1]

