Circuit: * D:\GitHub\physics_laboratory_2020_2021\AMPLIFICATORI OPERAZIONALI\Simulations\OpAmp\SIM\OPAMP.asc

Direct Newton iteration for .op point succeeded.

Date: Fri Nov 06 17:48:42 2020
Total elapsed time: 0.112 seconds.

tnom = 27
temp = 27
method = modified trap
totiter = 14829
traniter = 14825
tranpoints = 4051
accept = 2885
rejected = 1166
matrix size = 10
fillins = 1
solver = Normal
Matrix Compiler1: 454 bytes object code size  0.1/0.1/[0.1]
Matrix Compiler2: off  [0.1]/0.1/0.1

